Circuit: * Z:\home\santi\tc2_workspace\tc2_2023\TrabajoSemanal1\spice\filtro_pasatodo.asc

.OP point found by inspection.
Ignoring empty pin current: Ix(u1:1)
Ignoring empty pin current: Ix(u1:2)
Ignoring empty pin current: Ix(u1:1)
Ignoring empty pin current: Ix(u1:2)

Date: Wed Apr 19 20:46:31 2023
Total elapsed time: 0.108 seconds.

tnom = 27
temp = 27
method = trap
totiter = 0
traniter = 0
tranpoints = 0
accept = 0
rejected = 0
matrix size = 5
fillins = 1
solver = Normal
Avg thread counts: 4.0/0.0/0.0/1.1
Matrix Compiler1:      14 opcodes
Matrix Compiler2:      29 opcodes
