Circuit: * Z:\home\santi\tc2_workspace\tc2_2023\TrabajoSemanal2\Spice\filtro_pasabajos.asc

.OP point found by inspection.
Ignoring empty pin current: Ix(u1:1)
Ignoring empty pin current: Ix(u1:2)
Ignoring empty pin current: Ix(u2:1)
Ignoring empty pin current: Ix(u2:2)
Ignoring empty pin current: Ix(u3:1)
Ignoring empty pin current: Ix(u3:2)
Ignoring empty pin current: Ix(u1:1)
Ignoring empty pin current: Ix(u1:2)
Ignoring empty pin current: Ix(u2:1)
Ignoring empty pin current: Ix(u2:2)
Ignoring empty pin current: Ix(u3:1)
Ignoring empty pin current: Ix(u3:2)

Date: Wed Apr 19 18:39:08 2023
Total elapsed time: 0.172 seconds.

tnom = 27
temp = 27
method = trap
totiter = 0
traniter = 0
tranpoints = 0
accept = 0
rejected = 0
matrix size = 8
fillins = 6
solver = Normal
Avg thread counts: 4.0/0.0/0.0/1.1
Matrix Compiler1:      37 opcodes
Matrix Compiler2:      54 opcodes
