Circuit: * C:\Users\santi\OneDrive - UTN.BA\UTN\4. Cuarto Año\Teoría de los Circuitos II\GitHub\tc2_2023\TP_Laboratorio\simulaciones\spice\pasabanda_uaf42.asc

Ignoring empty pin current: Ix(u2:1)
Ignoring empty pin current: Ix(u2:2)
Ignoring empty pin current: Ix(u3:1)
Ignoring empty pin current: Ix(u3:2)
Ignoring empty pin current: Ix(u4:1)
Ignoring empty pin current: Ix(u4:2)

Date: Sun Jul 09 16:38:09 2023
Total elapsed time: 0.448 seconds.

tnom = 27
temp = 27
method = trap
totiter = 0
traniter = 0
tranpoints = 0
accept = 0
rejected = 0
matrix size = 11
fillins = 11
solver = Normal

