Circuit: * C:\Users\santi\OneDrive - UTN.BA\UTN\4. Cuarto Año\Teoría de los Circuitos II\GitHub\tc2_2023\TrabajoSemanal3\spice\sin_bobinas\butter_lp_sin_bobinas.asc

Ignoring empty pin current: Ix(u1:1)
Ignoring empty pin current: Ix(u1:2)
Ignoring empty pin current: Ix(u2:1)
Ignoring empty pin current: Ix(u2:2)

Date: Wed May 17 20:48:01 2023
Total elapsed time: 0.077 seconds.

tnom = 27
temp = 27
method = trap
totiter = 0
traniter = 0
tranpoints = 0
accept = 0
rejected = 0
matrix size = 7
fillins = 4
solver = Normal

