Circuit: * Z:\home\santi\Documentos\tc2_2023\TrabajoSemanal11\spice\ej1.asc

WARNING: Node N003 is floating.


Date: Thu Nov 09 20:51:30 2023
Total elapsed time: 0.077 seconds.

tnom = 27
temp = 27
method = trap
totiter = 0
traniter = 0
tranpoints = 0
accept = 0
rejected = 0
matrix size = 5
fillins = 1
solver = Normal

