Circuit: * C:\users\santi\Documents\tc2_2023\TrabajoSemanal_10\spice\pasaalto_notch.asc

Number of points per decade reduced from 10000 to 8790.

Date: Tue Nov 07 15:29:20 2023
Total elapsed time: 0.240 seconds.

tnom = 27
temp = 27
method = trap
totiter = 0
traniter = 0
tranpoints = 0
accept = 0
rejected = 0
matrix size = 6
fillins = 1
solver = Normal

